v 20050820 1
P 800 600 400 600 1 0 1
{
T 200 400 5 10 0 0 0 0 1
pinseq=1
T 200 400 5 10 0 0 0 0 1
pinnumber=1
T 800 600 5 10 0 0 0 0 1
pintype=io
T 800 600 5 10 0 0 0 0 1
pinlabel=1
}
T 1800 800 8 10 0 1 0 0 1
device=spice-IO
T 1700 500 8 10 1 1 0 0 1
refdes=P?
L 1000 800 800 600 3 0 0 0 -2 -2
L 1000 400 800 600 3 0 0 0 -2 -2
L 1000 800 1400 800 3 0 0 0 -2 -2
T 376 194 9 6 1 0 0 0 1
.SUBCKT IO Pin
L 1000 400 1400 400 3 0 0 0 -2 -2
L 1600 600 1400 800 3 0 0 0 -2 -2
L 1600 600 1400 400 3 0 0 0 -2 -2
